Circuit: *** SPICE deck for cell inverter_sim{sch} from library tutorial_3

Vgnd: both pins shorted together -- ignoring.
Ignoring BSIM parameter XL
Ignoring BSIM parameter XW
Ignoring BSIM parameter XL
Ignoring BSIM parameter XW
Warning: Pd = 0 is less than W.
Warning: Ps = 0 is less than W.
Warning: Pd = 0 is less than W.
Warning: Ps = 0 is less than W.
Direct Newton iteration for .op point succeeded.

Date: Tue Feb 19 18:05:08 2019
Total elapsed time: 0.093 seconds.

tnom = 27
temp = 27
method = modified trap
totiter = 2564
traniter = 2552
tranpoints = 1187
accept = 1151
rejected = 36
matrix size = 5
fillins = 0
solver = Normal
Matrix Compiler1: off  [0.0]/0.1/0.1
Matrix Compiler2: off  [0.1]/0.1/0.1


