Circuit: *** SPICE deck for cell r_divider{lay} from library tutorial_1

Direct Newton iteration for .op point succeeded.

Date: Mon Feb 18 12:53:28 2019
Total elapsed time: 0.146 seconds.

tnom = 27
temp = 27
method = modified trap
totiter = 2091
traniter = 2088
tranpoints = 1045
accept = 1045
rejected = 0
matrix size = 3
fillins = 0
solver = Normal
Matrix Compiler1: 50 bytes object code size  0.1/0.1/[0.1]
Matrix Compiler2: off  [0.1]/0.1/0.1


