Circuit: *** SPICE deck for cell 8_Bit_Adder_V2{lay} from library Project-2

Vgnd: both pins shorted together -- ignoring.
Ignoring BSIM parameter XL
Ignoring BSIM parameter XW
Ignoring BSIM parameter XL
Ignoring BSIM parameter XW
Direct Newton iteration for .op point succeeded.

Date: Sun Apr 07 21:01:22 2019
Total elapsed time: 0.610 seconds.

tnom = 27
temp = 27
method = modified trap
totiter = 3078
traniter = 3041
tranpoints = 1174
accept = 1135
rejected = 39
matrix size = 180
fillins = 110
solver = Normal
Thread vector: 241.8/116.5[4] 55.7/17.8[4] 15.3/6.7[4] 1.1/2.3[1]  2592/500
Matrix Compiler1: 29.03 KB object code size  7.5/2.8/[1.5]
Matrix Compiler2: 25.06 KB object code size  3.0/2.9/[2.0]


