Circuit: *** SPICE deck for cell Full_Adder_V2{sch} from library Project-2

Vgnd: both pins shorted together -- ignoring.
Ignoring BSIM parameter XL
Ignoring BSIM parameter XW
Ignoring BSIM parameter XL
Ignoring BSIM parameter XW
Warning: Pd = 0 is less than W.
Warning: Ps = 0 is less than W.
Warning: Pd = 0 is less than W.
Warning: Ps = 0 is less than W.
Direct Newton iteration for .op point succeeded.

Date: Fri Apr 05 17:37:46 2019
Total elapsed time: 0.270 seconds.

tnom = 27
temp = 27
method = modified trap
totiter = 5206
traniter = 5174
tranpoints = 1795
accept = 1568
rejected = 227
matrix size = 30
fillins = 4
solver = Normal
Thread vector: 36.8/26.2[4] 10.3/8.1[4] 2.9/3.5[1] 0.2/2.6[1]  2592/500
Matrix Compiler1: 2.95 KB object code size  0.9/0.4/[0.2]
Matrix Compiler2: 3.44 KB object code size  0.4/0.5/[0.3]


