Circuit: *** SPICE deck for cell Full_Adder_V3{sch} from library Project-2

Vgnd: both pins shorted together -- ignoring.
Ignoring BSIM parameter XL
Ignoring BSIM parameter XW
Ignoring BSIM parameter XL
Ignoring BSIM parameter XW
Warning: Pd = 0 is less than W.
Warning: Ps = 0 is less than W.
Warning: Pd = 0 is less than W.
Warning: Ps = 0 is less than W.
Warning: Pd = 0 is less than W.
Warning: Ps = 0 is less than W.
Direct Newton iteration for .op point succeeded.

Date: Sat Apr 06 07:48:20 2019
Total elapsed time: 0.263 seconds.

tnom = 27
temp = 27
method = modified trap
totiter = 5201
traniter = 5169
tranpoints = 1781
accept = 1557
rejected = 224
matrix size = 28
fillins = 2
solver = Normal
Thread vector: 41.5/25.8[4] 10.7/6.2[4] 2.5/3.5[1] 0.2/2.7[1]  2592/500
Matrix Compiler1: 2.87 KB object code size  0.9/0.4/[0.2]
Matrix Compiler2: 3.36 KB object code size  0.4/0.5/[0.3]


