Circuit: *** SPICE deck for cell Full_Adder_V4{sch} from library Project-2

Vgnd: both pins shorted together -- ignoring.
Ignoring BSIM parameter XL
Ignoring BSIM parameter XW
Ignoring BSIM parameter XL
Ignoring BSIM parameter XW
Warning: Pd = 0 is less than W.
Warning: Ps = 0 is less than W.
Warning: Pd = 0 is less than W.
Warning: Ps = 0 is less than W.
Warning: Pd = 0 is less than W.
Warning: Ps = 0 is less than W.
Direct Newton iteration for .op point succeeded.

Date: Sun Apr 07 15:30:44 2019
Total elapsed time: 0.211 seconds.

tnom = 27
temp = 27
method = modified trap
totiter = 3959
traniter = 3915
tranpoints = 1456
accept = 1325
rejected = 131
matrix size = 26
fillins = 4
solver = Normal
Thread vector: 31.5/14.0[3] 7.5/3.9[3] 2.2/1.3[3] 0.1/1.1[1]  2592/500
Matrix Compiler1: 2.73 KB object code size  0.6/0.3/[0.2]
Matrix Compiler2: 3.17 KB object code size  0.3/0.4/[0.3]


