Circuit: *** SPICE deck for cell Full_Adder_V0{sch} from library Project-2

Vgnd: both pins shorted together -- ignoring.
Ignoring BSIM parameter XL
Ignoring BSIM parameter XW
Ignoring BSIM parameter XL
Ignoring BSIM parameter XW
WARNING: Node NET@0 is floating.

Warning: Pd = 0 is less than W.
Warning: Ps = 0 is less than W.
Warning: Pd = 0 is less than W.
Warning: Ps = 0 is less than W.
Direct Newton iteration for .op point succeeded.

Date: Fri Apr 05 17:46:16 2019
Total elapsed time: 0.230 seconds.

tnom = 27
temp = 27
method = modified trap
totiter = 4701
traniter = 4669
tranpoints = 1637
accept = 1457
rejected = 180
matrix size = 27
fillins = 12
solver = Normal
Thread vector: 37.1/22.6[3] 8.6/5.0[3] 2.1/1.6[2] 0.2/2.3[1]  2592/500
Matrix Compiler1: 3.36 KB object code size  0.8/0.4/[0.2]
Matrix Compiler2: off  [0.4]/0.5/0.8


