Circuit: *** SPICE deck for cell HAHA{lay} from library Project-2

Vgnd: both pins shorted together -- ignoring.
Ignoring BSIM parameter XL
Ignoring BSIM parameter XW
Ignoring BSIM parameter XL
Ignoring BSIM parameter XW
WARNING: Less than two connections to node PMOS@2_DIFF-TOP.  This node is used by MPMOS@2.
WARNING: Less than two connections to node PMOS@3_DIFF-BOTTOM.  This node is used by MPMOS@3.
Direct Newton iteration for .op point succeeded.

Date: Fri Apr 05 22:54:39 2019
Total elapsed time: 0.140 seconds.

tnom = 27
temp = 27
method = modified trap
totiter = 2754
traniter = 2726
tranpoints = 1170
accept = 1125
rejected = 45
matrix size = 16
fillins = 0
solver = Normal
Matrix Compiler1: 754 bytes object code size  0.6/0.1/[0.1]
Matrix Compiler2: off  [0.2]/0.2/0.2


