Circuit: *** SPICE deck for cell Half_Adder{sch} from library Project-2

Vgnd: both pins shorted together -- ignoring.
Ignoring BSIM parameter XL
Ignoring BSIM parameter XW
Ignoring BSIM parameter XL
Ignoring BSIM parameter XW
Warning: Pd = 0 is less than W.
Warning: Ps = 0 is less than W.
Warning: Pd = 0 is less than W.
Warning: Ps = 0 is less than W.
Direct Newton iteration for .op point succeeded.

Date: Fri Apr 05 11:50:22 2019
Total elapsed time: 0.177 seconds.

tnom = 27
temp = 27
method = modified trap
totiter = 3231
traniter = 3210
tranpoints = 1245
accept = 1178
rejected = 67
matrix size = 16
fillins = 2
solver = Normal
Thread vector: 20.0/11.7[2] 4.5/3.7[2] 1.3/1.3[1] 0.1/0.7[1]  2592/500
Matrix Compiler1: 1.36 KB object code size  0.4/0.2/[0.1]
Matrix Compiler2: off  [0.2]/0.3/0.2


