Circuit: *** SPICE deck for cell inverter{lay} from library HW_2

Vgnd: both pins shorted together -- ignoring.
Ignoring BSIM parameter XL
Ignoring BSIM parameter XW
Ignoring BSIM parameter XL
Ignoring BSIM parameter XW
Direct Newton iteration for .op point succeeded.

Date: Fri Apr 05 21:41:39 2019
Total elapsed time: 0.104 seconds.

tnom = 27
temp = 27
method = modified trap
totiter = 2456
traniter = 2447
tranpoints = 1179
accept = 1135
rejected = 44
matrix size = 5
fillins = 0
solver = Normal
Matrix Compiler1:       8 opcodes  0.1/[0.0]/0.0
Matrix Compiler2: 335 bytes object code size  0.1/0.1/[0.0]


