Circuit: *** SPICE deck for cell Test{lay} from library Project-2

Vgnd: both pins shorted together -- ignoring.
Ignoring BSIM parameter XL
Ignoring BSIM parameter XW
Ignoring BSIM parameter XL
Ignoring BSIM parameter XW
Direct Newton iteration for .op point succeeded.

Date: Fri Apr 05 23:37:31 2019
Total elapsed time: 0.130 seconds.

tnom = 27
temp = 27
method = modified trap
totiter = 2772
traniter = 2746
tranpoints = 1220
accept = 1152
rejected = 68
matrix size = 14
fillins = 0
solver = Normal
Matrix Compiler1: 708 bytes object code size  0.2/0.1/[0.1]
Matrix Compiler2:     101 opcodes  0.2/[0.2]/0.2


