Circuit: *** SPICE deck for cell XOR_V3{lay} from library Project-2

Vgnd: both pins shorted together -- ignoring.
Ignoring BSIM parameter XL
Ignoring BSIM parameter XW
Ignoring BSIM parameter XL
Ignoring BSIM parameter XW
Direct Newton iteration for .op point succeeded.

Date: Sat Apr 06 19:14:09 2019
Total elapsed time: 0.160 seconds.

tnom = 27
temp = 27
method = modified trap
totiter = 2628
traniter = 2606
tranpoints = 1216
accept = 1163
rejected = 53
matrix size = 13
fillins = 2
solver = Normal
Matrix Compiler1: 960 bytes object code size  0.2/0.1/[0.0]
Matrix Compiler2: 1.40 KB object code size  0.2/0.2/[0.1]


