Circuit: *** SPICE deck for cell XOR_PART_1{lay} from library Project-2

Vgnd: both pins shorted together -- ignoring.
Ignoring BSIM parameter XL
Ignoring BSIM parameter XW
Ignoring BSIM parameter XL
Ignoring BSIM parameter XW
Direct Newton iteration for .op point succeeded.

Date: Sun Apr 07 13:47:18 2019
Total elapsed time: 0.133 seconds.

tnom = 27
temp = 27
method = modified trap
totiter = 2457
traniter = 2432
tranpoints = 1158
accept = 1122
rejected = 36
matrix size = 14
fillins = 0
solver = Normal
Matrix Compiler1: 654 bytes object code size  0.2/0.1/[0.0]
Matrix Compiler2: off  [0.1]/0.1/0.2


