Circuit: *** SPICE deck for cell XOR_V2{sch} from library Project-2

Vgnd: both pins shorted together -- ignoring.
Ignoring BSIM parameter XL
Ignoring BSIM parameter XW
Ignoring BSIM parameter XL
Ignoring BSIM parameter XW
Warning: Pd = 0 is less than W.
Warning: Ps = 0 is less than W.
Warning: Pd = 0 is less than W.
Warning: Ps = 0 is less than W.
Direct Newton iteration for .op point succeeded.

Date: Fri Apr 05 17:29:02 2019
Total elapsed time: 0.150 seconds.

tnom = 27
temp = 27
method = modified trap
totiter = 3257
traniter = 3236
tranpoints = 1258
accept = 1187
rejected = 71
matrix size = 14
fillins = 0
solver = Normal
Matrix Compiler1: 1010 bytes object code size  0.3/0.1/[0.1]
Matrix Compiler2: 1.39 KB object code size  0.2/0.2/[0.1]


