Circuit: *** SPICE deck for cell XOR_PART_2{lay} from library Project-2

Vgnd: both pins shorted together -- ignoring.
Ignoring BSIM parameter XL
Ignoring BSIM parameter XW
Ignoring BSIM parameter XL
Ignoring BSIM parameter XW
Direct Newton iteration for .op point succeeded.

Date: Sun Apr 07 13:48:00 2019
Total elapsed time: 0.152 seconds.

tnom = 27
temp = 27
method = modified trap
totiter = 2514
traniter = 2481
tranpoints = 1169
accept = 1132
rejected = 37
matrix size = 12
fillins = 2
solver = Normal
Matrix Compiler1: 966 bytes object code size  0.2/0.1/[0.1]
Matrix Compiler2: off  [0.1]/0.2/0.5


