Circuit: *** SPICE deck for cell 10_And{lay} from library Project_3

Vgnd: both pins shorted together -- ignoring.
Ignoring BSIM parameter XL
Ignoring BSIM parameter XW
Ignoring BSIM parameter XL
Ignoring BSIM parameter XW
Direct Newton iteration for .op point succeeded.

Date: Sat May 11 11:10:59 2019
Total elapsed time: 3.073 seconds.

tnom = 27
temp = 27
method = modified trap
totiter = 121278
traniter = 121258
tranpoints = 47151
accept = 34492
rejected = 12659
matrix size = 33
fillins = 0
solver = Normal
Thread vector: 23.7/15.5[2] 4.8/3.6[2] 1.2/1.7[1] 0.2/0.8[1]  2592/500
Matrix Compiler1: 1.64 KB object code size  0.5/0.2/[0.2]
Matrix Compiler2: 3.09 KB object code size  0.3/0.4/[0.3]


