Circuit: *** SPICE deck for cell 10_Or{lay} from library Project_3

Vgnd: both pins shorted together -- ignoring.
Ignoring BSIM parameter XL
Ignoring BSIM parameter XW
Ignoring BSIM parameter XL
Ignoring BSIM parameter XW
Direct Newton iteration for .op point succeeded.

Date: Sat May 11 11:46:05 2019
Total elapsed time: 0.170 seconds.

tnom = 27
temp = 27
method = modified trap
totiter = 2129
traniter = 2121
tranpoints = 1057
accept = 1053
rejected = 4
matrix size = 33
fillins = 0
solver = Normal
Thread vector: 27.6/17.2[2] 4.3/3.2[2] 1.0/1.1[1] 0.2/0.9[1]  2592/500
Matrix Compiler1: 1.72 KB object code size  0.5/0.2/[0.1]
Matrix Compiler2: 3.42 KB object code size  0.3/0.4/[0.2]


