Circuit: *** SPICE deck for cell 11_And{lay} from library Project_3

Vgnd: both pins shorted together -- ignoring.
Ignoring BSIM parameter XL
Ignoring BSIM parameter XW
Ignoring BSIM parameter XL
Ignoring BSIM parameter XW
Direct Newton iteration for .op point succeeded.

Date: Sat May 11 11:15:27 2019
Total elapsed time: 6.334 seconds.

tnom = 27
temp = 27
method = modified trap
totiter = 240582
traniter = 240563
tranpoints = 93970
accept = 68125
rejected = 25845
matrix size = 36
fillins = 0
solver = Normal
Thread vector: 24.9/18.5[2] 5.1/3.2[2] 1.4/1.2[2] 0.2/0.9[1]  2592/500
Matrix Compiler1: 1.80 KB object code size  0.6/0.3/[0.2]
Matrix Compiler2: 3.39 KB object code size  0.5/0.4/[0.3]


