Circuit: *** SPICE deck for cell 11_Or{lay} from library Project_3

Vgnd: both pins shorted together -- ignoring.
Ignoring BSIM parameter XL
Ignoring BSIM parameter XW
Ignoring BSIM parameter XL
Ignoring BSIM parameter XW
Direct Newton iteration for .op point succeeded.

Date: Sat May 11 11:46:26 2019
Total elapsed time: 0.177 seconds.

tnom = 27
temp = 27
method = modified trap
totiter = 2128
traniter = 2120
tranpoints = 1057
accept = 1053
rejected = 4
matrix size = 36
fillins = 0
solver = Normal
Thread vector: 30.1/17.6[2] 4.6/3.3[2] 1.1/1.3[1] 0.2/0.8[1]  2592/500
Matrix Compiler1: 1.89 KB object code size  0.6/0.2/[0.2]
Matrix Compiler2: 3.75 KB object code size  0.4/0.4/[0.3]


