Circuit: *** SPICE deck for cell 12_And{lay} from library Project_3

Vgnd: both pins shorted together -- ignoring.
Ignoring BSIM parameter XL
Ignoring BSIM parameter XW
Ignoring BSIM parameter XL
Ignoring BSIM parameter XW
Direct Newton iteration for .op point succeeded.

Date: Sat May 11 11:17:31 2019
Total elapsed time: 13.959 seconds.

tnom = 27
temp = 27
method = modified trap
totiter = 476218
traniter = 476199
tranpoints = 188615
accept = 136952
rejected = 51663
matrix size = 39
fillins = 0
solver = Normal
Thread vector: 25.4/17.6[2] 5.2/3.6[2] 1.3/1.3[1] 0.2/0.9[1]  2592/500
Matrix Compiler1: 1.96 KB object code size  0.7/0.2/[0.2]
Matrix Compiler2: off  [0.3]/0.4/0.4


