Circuit: *** SPICE deck for cell 13_Or{lay} from library Project_3

Vgnd: both pins shorted together -- ignoring.
Ignoring BSIM parameter XL
Ignoring BSIM parameter XW
Ignoring BSIM parameter XL
Ignoring BSIM parameter XW
Direct Newton iteration for .op point succeeded.

Date: Sat May 11 11:47:35 2019
Total elapsed time: 0.197 seconds.

tnom = 27
temp = 27
method = modified trap
totiter = 2128
traniter = 2120
tranpoints = 1057
accept = 1053
rejected = 4
matrix size = 42
fillins = 0
solver = Normal
Thread vector: 33.5/21.3[2] 5.4/3.6[2] 1.4/1.2[2] 0.2/1.0[1]  2592/500
Matrix Compiler1: 2.23 KB object code size  0.7/0.3/[0.2]
Matrix Compiler2: 4.41 KB object code size  0.4/0.4/[0.3]


