Circuit: *** SPICE deck for cell 14_Or{lay} from library Project_3

Vgnd: both pins shorted together -- ignoring.
Ignoring BSIM parameter XL
Ignoring BSIM parameter XW
Ignoring BSIM parameter XL
Ignoring BSIM parameter XW
Direct Newton iteration for .op point succeeded.

Date: Sat May 11 11:47:59 2019
Total elapsed time: 0.205 seconds.

tnom = 27
temp = 27
method = modified trap
totiter = 2130
traniter = 2121
tranpoints = 1057
accept = 1053
rejected = 4
matrix size = 45
fillins = 0
solver = Normal
Thread vector: 42.1/26.0[3] 6.1/4.4[3] 1.7/1.4[2] 0.3/3.6[1]  2592/500
Matrix Compiler1: 2.64 KB object code size  0.9/0.4/[0.3]
Matrix Compiler2: 4.66 KB object code size  0.5/0.6/[0.4]


