Circuit: *** SPICE deck for cell 19_And{lay} from library Project_3

Vgnd: both pins shorted together -- ignoring.
Ignoring BSIM parameter XL
Ignoring BSIM parameter XW
Ignoring BSIM parameter XL
Ignoring BSIM parameter XW
Direct Newton iteration for .op point succeeded.

Date: Sat May 11 12:03:43 2019
Total elapsed time: 0.236 seconds.

tnom = 27
temp = 27
method = modified trap
totiter = 2159
traniter = 2140
tranpoints = 1057
accept = 1053
rejected = 4
matrix size = 60
fillins = 0
solver = Normal
Thread vector: 39.7/27.3[4] 8.9/7.2[4] 2.5/3.8[1] 0.3/2.6[1]  2592/500
Matrix Compiler1: 3.11 KB object code size  1.1/0.5/[0.4]
Matrix Compiler2: 5.74 KB object code size  0.7/0.7/[0.5]


