Circuit: *** SPICE deck for cell 19_Or{lay} from library Project_3

Vgnd: both pins shorted together -- ignoring.
Ignoring BSIM parameter XL
Ignoring BSIM parameter XW
Ignoring BSIM parameter XL
Ignoring BSIM parameter XW
Direct Newton iteration for .op point succeeded.

Date: Sat May 11 12:03:20 2019
Total elapsed time: 0.234 seconds.

tnom = 27
temp = 27
method = modified trap
totiter = 2129
traniter = 2121
tranpoints = 1057
accept = 1053
rejected = 4
matrix size = 60
fillins = 0
solver = Normal
Thread vector: 47.3/31.8[4] 9.2/7.2[4] 2.1/10.0[1] 0.3/2.8[1]  2592/500
Matrix Compiler1: 3.59 KB object code size  1.0/0.6/[0.4]
Matrix Compiler2: 6.28 KB object code size  0.7/0.7/[0.4]


