Circuit: *** SPICE deck for cell 2_AND{lay} from library Project_3

Vgnd: both pins shorted together -- ignoring.
Ignoring BSIM parameter XL
Ignoring BSIM parameter XW
Ignoring BSIM parameter XL
Ignoring BSIM parameter XW
Direct Newton iteration for .op point succeeded.

Date: Sun May 12 20:53:25 2019
Total elapsed time: 0.164 seconds.

tnom = 27
temp = 27
method = modified trap
totiter = 2399
traniter = 2380
tranpoints = 1114
accept = 1095
rejected = 19
matrix size = 22
fillins = 16
solver = Normal
Matrix Compiler1: 1.88 KB object code size  0.4/0.2/[0.1]
Matrix Compiler2: 2.03 KB object code size  0.2/0.2/[0.2]


