Circuit: *** SPICE deck for cell 32_Adder{lay} from library Project_3

Vgnd: both pins shorted together -- ignoring.
Ignoring BSIM parameter XL
Ignoring BSIM parameter XW
Ignoring BSIM parameter XL
Ignoring BSIM parameter XW
Direct Newton iteration for .op point succeeded.

Date: Sun May 12 18:43:32 2019
Total elapsed time: 2.049 seconds.

tnom = 27
temp = 27
method = modified trap
totiter = 2367
traniter = 2329
tranpoints = 1089
accept = 1076
rejected = 13
matrix size = 866
fillins = 192
solver = Normal
Thread vector: 1215.3/536.0[4] 240.1/124.8[4] 64.2/47.2[4] 5.7/5.8[1]  2592/500
Matrix Compiler1: 109.42 KB object code size  47.9/16.4/[13.6]
Matrix Compiler2: 112.98 KB object code size  20.6/13.7/[10.2]


