Circuit: *** SPICE deck for cell 3_AND{lay} from library Project_3

Vgnd: both pins shorted together -- ignoring.
Ignoring BSIM parameter XL
Ignoring BSIM parameter XW
Ignoring BSIM parameter XL
Ignoring BSIM parameter XW
Direct Newton iteration for .op point succeeded.

Date: Sat May 11 10:43:07 2019
Total elapsed time: 0.129 seconds.

tnom = 27
temp = 27
method = modified trap
totiter = 2623
traniter = 2605
tranpoints = 1202
accept = 1153
rejected = 49
matrix size = 12
fillins = 0
solver = Normal
Matrix Compiler1:      34 opcodes  0.2/[0.0]/0.1
Matrix Compiler2: off  [0.1]/0.2/0.1


