Circuit: *** SPICE deck for cell 4_AND{lay} from library Project_3

Vgnd: both pins shorted together -- ignoring.
Ignoring BSIM parameter XL
Ignoring BSIM parameter XW
Ignoring BSIM parameter XL
Ignoring BSIM parameter XW
Direct Newton iteration for .op point succeeded.

Date: Sat May 11 10:46:01 2019
Total elapsed time: 0.147 seconds.

tnom = 27
temp = 27
method = modified trap
totiter = 3380
traniter = 3362
tranpoints = 1430
accept = 1312
rejected = 118
matrix size = 15
fillins = 0
solver = Normal
Matrix Compiler1:      40 opcodes  0.3/[0.1]/0.1
Matrix Compiler2: 1.33 KB object code size  0.2/0.2/[0.2]


