Circuit: *** SPICE deck for cell 4_CLA_Full_V2{sch} from library Project_3

full_add@0:mpmos@21: all pins shorted together -- ignoring.
Vgnd: both pins shorted together -- ignoring.
Ignoring BSIM parameter XL
Ignoring BSIM parameter XW
Ignoring BSIM parameter XL
Ignoring BSIM parameter XW
WARNING: Less than two connections to node B0.  This node is used by VIN1.
Warning: Pd = 0 is less than W.
Warning: Ps = 0 is less than W.
Warning: Pd = 0 is less than W.
Warning: Ps = 0 is less than W.
Direct Newton iteration for .op point succeeded.

Date: Sun May 05 13:04:26 2019
Total elapsed time: 0.204 seconds.

tnom = 27
temp = 27
method = modified trap
totiter = 3781
traniter = 3742
tranpoints = 1378
accept = 1258
rejected = 120
matrix size = 32
fillins = 12
solver = Normal
Thread vector: 41.8/32.0[4] 11.7/9.4[4] 3.2/3.8[1] 0.1/5.1[1]  2592/500
Matrix Compiler1: 3.98 KB object code size  0.9/0.5/[0.3]
Matrix Compiler2: 4.04 KB object code size  0.5/0.7/[0.4]


