Circuit: *** SPICE deck for cell 4_CLA_FULL{sch} from library Project_3

Vgnd: both pins shorted together -- ignoring.
Ignoring BSIM parameter XL
Ignoring BSIM parameter XW
Ignoring BSIM parameter XL
Ignoring BSIM parameter XW
Warning: Pd = 0 is less than W.
Warning: Ps = 0 is less than W.
Warning: Pd = 0 is less than W.
Warning: Ps = 0 is less than W.
Direct Newton iteration failed to find .op point.  (Use ".option noopiter" to skip.)
Starting Gmin stepping
Gmin = 10
Gmin = 1.07374
Gmin = 0.115292
Gmin = 0.0123794
Gmin = 0.00132923
Gmin = 0.000142725
Gmin = 1.5325e-005
Gmin = 1.6455e-006
Gmin = 1.76685e-007
Gmin = 1.89714e-008
Gmin = 2.03704e-009
Gmin = 2.18725e-010
Gmin = 2.34854e-011
Gmin = 2.52173e-012
Gmin = 2.70769e-013
Gmin = 0
Gmin stepping succeeded in finding the operating point.


Date: Sun May 05 15:05:19 2019
Total elapsed time: 0.324 seconds.

tnom = 27
temp = 27
method = modified trap
totiter = 3035
traniter = 2589
tranpoints = 1129
accept = 1097
rejected = 32
matrix size = 62
fillins = 42
solver = Normal
Thread vector: 85.2/47.2[4] 22.4/12.1[4] 5.8/4.5[4] 0.4/3.0[1]  2592/500
Matrix Compiler1: 10.01 KB object code size  1.8/1.4/[0.5]
Matrix Compiler2: 8.74 KB object code size  1.7/1.3/[0.6]


