Circuit: *** SPICE deck for cell 4_OR{lay} from library Project_3

Vgnd: both pins shorted together -- ignoring.
Ignoring BSIM parameter XL
Ignoring BSIM parameter XW
Ignoring BSIM parameter XL
Ignoring BSIM parameter XW
Direct Newton iteration for .op point succeeded.

Date: Sat May 11 11:42:42 2019
Total elapsed time: 0.133 seconds.

tnom = 27
temp = 27
method = modified trap
totiter = 2141
traniter = 2133
tranpoints = 1057
accept = 1053
rejected = 4
matrix size = 15
fillins = 0
solver = Normal
Matrix Compiler1: 704 bytes object code size  0.2/0.1/[0.1]
Matrix Compiler2: 1.43 KB object code size  0.2/0.5/[0.1]


