Circuit: *** SPICE deck for cell 5_AND{lay} from library Project_3

Vgnd: both pins shorted together -- ignoring.
Ignoring BSIM parameter XL
Ignoring BSIM parameter XW
Ignoring BSIM parameter XL
Ignoring BSIM parameter XW
Direct Newton iteration for .op point succeeded.

Date: Fri May 10 13:09:29 2019
Total elapsed time: 0.212 seconds.

tnom = 27
temp = 27
method = modified trap
totiter = 4737
traniter = 4723
tranpoints = 1899
accept = 1639
rejected = 260
matrix size = 18
fillins = 0
solver = Normal
Matrix Compiler1: 836 bytes object code size  0.3/0.2/[0.1]
Matrix Compiler2: 1.62 KB object code size  0.2/0.2/[0.2]


