Circuit: *** SPICE deck for cell 5_Or{lay} from library Project_3

Vgnd: both pins shorted together -- ignoring.
Ignoring BSIM parameter XL
Ignoring BSIM parameter XW
Ignoring BSIM parameter XL
Ignoring BSIM parameter XW
Direct Newton iteration for .op point succeeded.

Date: Sat May 11 11:43:26 2019
Total elapsed time: 0.139 seconds.

tnom = 27
temp = 27
method = modified trap
totiter = 2142
traniter = 2130
tranpoints = 1057
accept = 1053
rejected = 4
matrix size = 18
fillins = 0
solver = Normal
Matrix Compiler1: 872 bytes object code size  0.3/0.1/[0.1]
Matrix Compiler2: 1.77 KB object code size  0.2/0.2/[0.1]


