Circuit: *** SPICE deck for cell 6_And{lay} from library Project_3

Vgnd: both pins shorted together -- ignoring.
Ignoring BSIM parameter XL
Ignoring BSIM parameter XW
Ignoring BSIM parameter XL
Ignoring BSIM parameter XW
Direct Newton iteration for .op point succeeded.

Date: Sat May 11 10:57:12 2019
Total elapsed time: 0.275 seconds.

tnom = 27
temp = 27
method = modified trap
totiter = 8421
traniter = 8402
tranpoints = 3189
accept = 2583
rejected = 606
matrix size = 21
fillins = 0
solver = Normal
Matrix Compiler1:      60 opcodes  0.3/[0.1]/0.1
Matrix Compiler2: 1.92 KB object code size  0.2/0.2/[0.2]


