Circuit: *** SPICE deck for cell 6_Or{lay} from library Project_3

Vgnd: both pins shorted together -- ignoring.
Ignoring BSIM parameter XL
Ignoring BSIM parameter XW
Ignoring BSIM parameter XL
Ignoring BSIM parameter XW
Direct Newton iteration for .op point succeeded.

Date: Sat May 11 11:43:58 2019
Total elapsed time: 0.152 seconds.

tnom = 27
temp = 27
method = modified trap
totiter = 2132
traniter = 2124
tranpoints = 1057
accept = 1053
rejected = 4
matrix size = 21
fillins = 0
solver = Normal
Matrix Compiler1:      63 opcodes  0.3/[0.1]/0.1
Matrix Compiler2: 2.09 KB object code size  0.3/0.2/[0.2]


