Circuit: *** SPICE deck for cell 7_And{lay} from library Project_3

Vgnd: both pins shorted together -- ignoring.
Ignoring BSIM parameter XL
Ignoring BSIM parameter XW
Ignoring BSIM parameter XL
Ignoring BSIM parameter XW
Direct Newton iteration for .op point succeeded.

Date: Sat May 11 11:04:25 2019
Total elapsed time: 0.451 seconds.

tnom = 27
temp = 27
method = modified trap
totiter = 15531
traniter = 15511
tranpoints = 5831
accept = 4449
rejected = 1382
matrix size = 24
fillins = 0
solver = Normal
Matrix Compiler1: 1.14 KB object code size  0.4/0.2/[0.1]
Matrix Compiler2: 2.21 KB object code size  0.3/0.3/[0.3]


