Circuit: *** SPICE deck for cell 8_Or{lay} from library Project_3

Vgnd: both pins shorted together -- ignoring.
Ignoring BSIM parameter XL
Ignoring BSIM parameter XW
Ignoring BSIM parameter XL
Ignoring BSIM parameter XW
Direct Newton iteration for .op point succeeded.

Date: Sat May 11 11:44:59 2019
Total elapsed time: 0.176 seconds.

tnom = 27
temp = 27
method = modified trap
totiter = 2129
traniter = 2121
tranpoints = 1057
accept = 1053
rejected = 4
matrix size = 27
fillins = 0
solver = Normal
Matrix Compiler1: 1.38 KB object code size  0.5/0.2/[0.1]
Matrix Compiler2: 2.75 KB object code size  0.3/0.3/[0.2]


