Circuit: *** SPICE deck for cell 9_And{lay} from library Project_3

Vgnd: both pins shorted together -- ignoring.
Ignoring BSIM parameter XL
Ignoring BSIM parameter XW
Ignoring BSIM parameter XL
Ignoring BSIM parameter XW
Direct Newton iteration for .op point succeeded.

Date: Sat May 11 11:08:21 2019
Total elapsed time: 1.295 seconds.

tnom = 27
temp = 27
method = modified trap
totiter = 60969
traniter = 60950
tranpoints = 23383
accept = 17126
rejected = 6257
matrix size = 30
fillins = 0
solver = Normal
Thread vector: 20.5/15.3[2] 4.4/3.1[2] 1.3/1.3[1] 0.2/1.6[1]  2592/500
Matrix Compiler1: 1.47 KB object code size  0.5/0.3/[0.2]
Matrix Compiler2: 2.80 KB object code size  0.3/0.4/[0.3]


