Circuit: *** SPICE deck for cell 9_Or{lay} from library Project_3

Vgnd: both pins shorted together -- ignoring.
Ignoring BSIM parameter XL
Ignoring BSIM parameter XW
Ignoring BSIM parameter XL
Ignoring BSIM parameter XW
Direct Newton iteration for .op point succeeded.

Date: Sat May 11 11:45:23 2019
Total elapsed time: 0.170 seconds.

tnom = 27
temp = 27
method = modified trap
totiter = 2128
traniter = 2121
tranpoints = 1057
accept = 1053
rejected = 4
matrix size = 30
fillins = 0
solver = Normal
Thread vector: 24.2/15.0[2] 4.0/2.9[2] 1.0/1.1[1] 0.2/3.7[1]  2592/500
Matrix Compiler1:      94 opcodes  0.5/[0.1]/0.2
Matrix Compiler2: 3.09 KB object code size  0.3/0.3/[0.2]


