Circuit: *** SPICE deck for cell C1{lay} from library Project_3

Vgnd: both pins shorted together -- ignoring.
Ignoring BSIM parameter XL
Ignoring BSIM parameter XW
Ignoring BSIM parameter XL
Ignoring BSIM parameter XW
Direct Newton iteration for .op point succeeded.

Date: Sun May 12 17:55:42 2019
Total elapsed time: 0.160 seconds.

tnom = 27
temp = 27
method = modified trap
totiter = 2265
traniter = 2234
tranpoints = 1070
accept = 1061
rejected = 9
matrix size = 14
fillins = 0
solver = Normal
Matrix Compiler1: 680 bytes object code size  0.2/0.1/[0.1]
Matrix Compiler2: 1.29 KB object code size  0.2/0.2/[0.1]


