Circuit: *** SPICE deck for cell C1_V2{sch} from library Project_3

Vgnd: both pins shorted together -- ignoring.
Ignoring BSIM parameter XL
Ignoring BSIM parameter XW
Ignoring BSIM parameter XL
Ignoring BSIM parameter XW
Warning: Pd = 0 is less than W.
Warning: Ps = 0 is less than W.
Warning: Pd = 0 is less than W.
Warning: Ps = 0 is less than W.
Direct Newton iteration for .op point succeeded.

Date: Sun May 05 14:56:20 2019
Total elapsed time: 0.124 seconds.

tnom = 27
temp = 27
method = modified trap
totiter = 3065
traniter = 3051
tranpoints = 1220
accept = 1161
rejected = 59
matrix size = 12
fillins = 0
solver = Normal
Matrix Compiler1: 518 bytes object code size  0.1/0.1/[0.1]
Matrix Compiler2: 1.07 KB object code size  0.2/0.2/[0.1]


