Circuit: *** SPICE deck for cell C2{sch} from library Project_3

Vgnd: both pins shorted together -- ignoring.
Ignoring BSIM parameter XL
Ignoring BSIM parameter XW
Ignoring BSIM parameter XL
Ignoring BSIM parameter XW
Warning: Pd = 0 is less than W.
Warning: Ps = 0 is less than W.
Warning: Pd = 0 is less than W.
Warning: Ps = 0 is less than W.
Direct Newton iteration for .op point succeeded.

Date: Thu May 09 15:17:41 2019
Total elapsed time: 0.309 seconds.

tnom = 27
temp = 27
method = modified trap
totiter = 6944
traniter = 6930
tranpoints = 2237
accept = 1875
rejected = 362
matrix size = 23
fillins = 2
solver = Normal
Thread vector: 26.5/17.4[2] 6.7/4.4[2] 1.5/1.5[1] 0.2/1.4[1]  2592/500
Matrix Compiler1: 1.35 KB object code size  0.5/0.3/[0.2]
Matrix Compiler2: off  [0.3]/0.4/0.5


