Circuit: *** SPICE deck for cell C31{sch} from library Project_3

Vgnd: both pins shorted together -- ignoring.
Ignoring BSIM parameter XL
Ignoring BSIM parameter XW
Ignoring BSIM parameter XL
Ignoring BSIM parameter XW
WARNING: Less than two connections to node P31.  This node is used by VIN33.
Warning: Pd = 0 is less than W.
Warning: Ps = 0 is less than W.
Warning: Pd = 0 is less than W.
Warning: Ps = 0 is less than W.
Direct Newton iteration for .op point succeeded.

Date: Sun May 12 19:38:55 2019
Total elapsed time: 5.731 seconds.

tnom = 27
temp = 27
method = modified trap
totiter = 2872
traniter = 2831
tranpoints = 1196
accept = 1128
rejected = 68
matrix size = 949
fillins = 136
solver = Normal
Thread vector: 1836.5/933.8[4] 524.5/322.7[4] 156.7/112.3[4] 9.7/11.4[1]  2592/500
Matrix Compiler1: 93.79 KB object code size  93.4/23.9/[22.0]
Matrix Compiler2: 132.43 KB object code size  48.6/28.8/[16.9]


