Circuit: *** SPICE deck for cell Full_Add{sch} from library Project_3

Vgnd: both pins shorted together -- ignoring.
Ignoring BSIM parameter XL
Ignoring BSIM parameter XW
Ignoring BSIM parameter XL
Ignoring BSIM parameter XW
Warning: Pd = 0 is less than W.
Warning: Ps = 0 is less than W.
Warning: Pd = 0 is less than W.
Warning: Ps = 0 is less than W.
Direct Newton iteration for .op point succeeded.

Date: Sun May 05 13:52:44 2019
Total elapsed time: 0.498 seconds.

tnom = 27
temp = 27
method = modified trap
totiter = 6168
traniter = 6129
tranpoints = 1928
accept = 1636
rejected = 292
matrix size = 31
fillins = 10
solver = Normal
Thread vector: 69.7/42.9[4] 17.9/10.5[4] 3.6/3.1[3] 0.2/4.1[1]  2592/500
Matrix Compiler1: 3.65 KB object code size  1.4/0.7/[0.4]
Matrix Compiler2: 3.85 KB object code size  0.6/0.9/[0.5]


