Circuit: *** SPICE deck for cell Full_Adder{lay} from library Project_3

Vgnd: both pins shorted together -- ignoring.
Ignoring BSIM parameter XL
Ignoring BSIM parameter XW
Ignoring BSIM parameter XL
Ignoring BSIM parameter XW
Direct Newton iteration for .op point succeeded.

Date: Sun May 12 18:11:39 2019
Total elapsed time: 0.220 seconds.

tnom = 27
temp = 27
method = modified trap
totiter = 2275
traniter = 2229
tranpoints = 1062
accept = 1056
rejected = 6
matrix size = 31
fillins = 6
solver = Normal
Thread vector: 44.0/28.2[4] 9.6/7.8[3] 2.7/5.1[1] 0.2/3.4[1]  2592/500
Matrix Compiler1: 3.42 KB object code size  1.3/0.5/[0.2]
Matrix Compiler2: 3.78 KB object code size  0.5/0.7/[0.5]


