Circuit: *** SPICE deck for cell Mux{sch} from library Project_3

Vgnd: both pins shorted together -- ignoring.
Ignoring BSIM parameter XL
Ignoring BSIM parameter XW
Ignoring BSIM parameter XL
Ignoring BSIM parameter XW
Warning: Pd = 0 is less than W.
Warning: Ps = 0 is less than W.
Warning: Pd = 0 is less than W.
Warning: Ps = 0 is less than W.
Direct Newton iteration for .op point succeeded.

Date: Sun May 05 13:09:44 2019
Total elapsed time: 0.134 seconds.

tnom = 27
temp = 27
method = modified trap
totiter = 2468
traniter = 2432
tranpoints = 1112
accept = 1086
rejected = 26
matrix size = 12
fillins = 2
solver = Normal
Matrix Compiler1:      54 opcodes  0.2/[0.1]/0.1
Matrix Compiler2: 1.28 KB object code size  0.2/0.2/[0.2]


