Circuit: *** SPICE deck for cell XOR{sch} from library Project_3

Vgnd: both pins shorted together -- ignoring.
Ignoring BSIM parameter XL
Ignoring BSIM parameter XW
Ignoring BSIM parameter XL
Ignoring BSIM parameter XW
Warning: Pd = 0 is less than W.
Warning: Ps = 0 is less than W.
Warning: Pd = 0 is less than W.
Warning: Ps = 0 is less than W.
Direct Newton iteration for .op point succeeded.

Date: Sat May 11 23:39:48 2019
Total elapsed time: 0.232 seconds.

tnom = 27
temp = 27
method = modified trap
totiter = 2698
traniter = 2662
tranpoints = 1195
accept = 1150
rejected = 45
matrix size = 12
fillins = 2
solver = Normal
Matrix Compiler1: 966 bytes object code size  0.3/0.2/[0.2]
Matrix Compiler2: 1.28 KB object code size  0.9/0.3/[0.3]


